3D XYZ flow problem; 1 by 1 km; 100 m thick; one central well injects CO2; deep Frio
ROCKS----1----*----2----*----3----*----4----*----5----*----6----*----7----*----8
sands    2  2600.e00      0.258.6232E-138.6232E-134.1339E-13      2.51      920.
     1.e-8
    7           .457       .20        1.       .01
    7           .457       .00    5.1e-5      1.e7      .999
shale    2  2600.e00       .051.0000E-181.0000E-181.0000E-18      2.51      920.
     1.e-8
    7           .457       .30        1.       .01
    7           .457       .00    5.1e-5      1.e7      .999
fault    2  2600.e00       .301.0000E-121.0000E-121.0000E-12      2.51      920.
     1.e-8
    7           .457       .15        1.       .01
    7           .457       .002.13806E-4      1.e7      .999
sand1    2  2600.e00      0.258.6232E-138.6232E-134.1339E-13      2.51      920.
     1.e-8
    7           .457       .20        1.       .01
    7           .457       .00    5.1e-5      1.e7      .999
wells    2  2600.e00       .252.0000E-132.0000E-132.0000E-13      2.51      920.
     1.e-8
    7           .457       .20        1.       .01
    7           .457       .00    5.1e-5      1.e7      .999
bound    2  2600.e00       .251.0000E-131.0000E-131.0000E-13      2.51    10020.
     1.e-8
    7           .457       .20        1.       .01
    7           .457       .00    5.1e-5      1.e7      .999

MULTI----1----*----2----*----3----*----4----*----5----*----6----*----7----*----8
    3    3    3    6
SELEC....2....3....4....5....6....7....8....9...10...11...12...13...14...15...16
    1         0                                  0    0    0    0    0    0    2
        .8        .8
SOLVR----1----*----2----*----3----*----4----*----5----*----6----*----7----*----8
5  Z1   O0    8.0e-1    1.0e-7
START----1----*----2----*----3----*----4----*----5----*----6----*----7----*----8
----*----1 MOP: 123456789*123456789*1234 ---*----5----*----6----*----7----*----8
PARAM----1----*----2----*----3----*----4----*----5----*----6----*----7----*----8
   29999    99991000300000000  4    0                                   199999
           2.59200e7       60. 4.15576e6          9.806
     1.E-6     1.E00
             150.0e5                 .03                 0.0                 60.
TIMES----1----*----2----*----3----*----4----*----5----*----6----*----7----*----8
    1
2.59200e7

FOFT ----1----*----2----*----3----*----4----*----5----*----6----*----7----*----8

ENDCY----1----*----2----*----3----*----4----*----5----*----6----*----7----*----8
